
 OpenBabel01182210583D

 78 86  0  0  0  0  0  0  0  0999 V2000
   -4.1306   -0.9611    0.3849 C   0  0  0  0  0  0  0  0  0  0  0  0
   -4.2578    0.3531    0.2710 C   0  0  0  0  0  0  0  0  0  0  0  0
   -2.9836    1.0259    0.1894 C   0  0  0  0  0  0  0  0  0  0  0  0
   -2.7293    2.3715    0.1606 C   0  0  0  0  0  0  0  0  0  0  0  0
   -1.3720    2.7608   -0.2283 C   0  0  0  0  0  0  0  0  0  0  0  0
   -0.9418    3.7261   -1.1260 C   0  0  0  0  0  0  0  0  0  0  0  0
    0.4532    3.8188   -1.0415 C   0  0  0  0  0  0  0  0  0  0  0  0
    0.9012    2.8141   -0.2018 C   0  0  0  0  0  0  0  0  0  0  0  0
   -0.2195    2.1435    0.2543 N   0  0  0  0  0  0  0  0  0  0  0  0
    2.2631    2.4938    0.1386 C   0  0  0  0  0  0  0  0  0  0  0  0
    2.6980    1.2169    0.3201 C   0  0  0  0  0  0  0  0  0  0  0  0
    4.0944    0.8551    0.2658 C   0  0  0  0  0  0  0  0  0  0  0  0
    4.2006   -0.4027   -0.1473 C   0  0  0  0  0  0  0  0  0  0  0  0
    2.8556   -0.9336    0.0936 C   0  0  0  0  0  0  0  0  0  0  0  0
    1.9812    0.0224    0.3372 N   0  0  0  0  0  0  0  0  0  0  0  0
    2.6417   -2.4491    0.0100 C   0  0  0  0  0  0  0  0  0  0  0  0
    3.7554   -3.5029    0.2081 C   0  0  0  0  0  0  0  0  0  0  0  0
    5.1236   -3.2209    0.3610 C   0  0  0  0  0  0  0  0  0  0  0  0
    6.1323   -4.2009    0.3109 C   0  0  0  0  0  0  0  0  0  0  0  0
    5.8002   -5.5381    0.2152 C   0  0  0  0  0  0  0  0  0  0  0  0
    4.4640   -5.8826    0.2855 C   0  0  0  0  0  0  0  0  0  0  0  0
    3.4776   -4.8807    0.3338 C   0  0  0  0  0  0  0  0  0  0  0  0
    1.3694   -2.7676   -0.3573 C   0  0  0  0  0  0  0  0  0  0  0  0
    0.8962   -4.0549   -0.8583 C   0  0  0  0  0  0  0  0  0  0  0  0
   -0.4423   -4.0902   -0.8316 C   0  0  0  0  0  0  0  0  0  0  0  0
   -0.9354   -2.7907   -0.3881 C   0  0  0  0  0  0  0  0  0  0  0  0
    0.2034   -2.0116   -0.3192 N   0  0  0  0  0  0  0  0  0  0  0  0
   -2.2343   -2.5356   -0.1310 C   0  0  0  0  0  0  0  0  0  0  0  0
   -2.6993   -1.1296    0.1302 C   0  0  0  0  0  0  0  0  0  0  0  0
   -2.0396   -0.0031    0.0674 N   0  0  0  0  0  0  0  0  0  0  0  0
   -3.2252   -3.6577   -0.1629 C   0  0  0  0  0  0  0  0  0  0  0  0
   -3.1661   -4.6902    0.7898 C   0  0  0  0  0  0  0  0  0  0  0  0
   -4.1025   -5.7281    0.7778 C   0  0  0  0  0  0  0  0  0  0  0  0
   -5.1314   -5.7283   -0.1614 C   0  0  0  0  0  0  0  0  0  0  0  0
   -5.2090   -4.7077   -1.1069 C   0  0  0  0  0  0  0  0  0  0  0  0
   -4.2477   -3.6932   -1.1246 C   0  0  0  0  0  0  0  0  0  0  0  0
    3.2758    3.6197    0.0662 C   0  0  0  0  0  0  0  0  0  0  0  0
    3.1709    4.7024    0.9527 C   0  0  0  0  0  0  0  0  0  0  0  0
    4.0708    5.7723    0.8866 C   0  0  0  0  0  0  0  0  0  0  0  0
    5.1011    5.7665   -0.0522 C   0  0  0  0  0  0  0  0  0  0  0  0
    5.2075    4.7131   -0.9554 C   0  0  0  0  0  0  0  0  0  0  0  0
    4.2788    3.6689   -0.9206 C   0  0  0  0  0  0  0  0  0  0  0  0
   -3.8151    3.4830    0.3238 C   0  0  0  0  0  0  0  0  0  0  0  0
   -5.1895    3.2870    0.5407 C   0  0  0  0  0  0  0  0  0  0  0  0
   -6.1478    4.3099    0.4280 C   0  0  0  0  0  0  0  0  0  0  0  0
   -5.7515    5.6126    0.1951 C   0  0  0  0  0  0  0  0  0  0  0  0
   -4.3963    5.8895    0.1563 C   0  0  0  0  0  0  0  0  0  0  0  0
   -3.4564    4.8467    0.2457 C   0  0  0  0  0  0  0  0  0  0  0  0
   -4.9177   -1.6876    0.4343 H   0  0  0  0  0  0  0  0  0  0  0  0
   -5.2384    0.7572    0.1437 H   0  0  0  0  0  0  0  0  0  0  0  0
   -1.5789    4.3526   -1.7359 H   0  0  0  0  0  0  0  0  0  0  0  0
    1.0824    4.5256   -1.5675 H   0  0  0  0  0  0  0  0  0  0  0  0
   -0.2106    1.3018    0.8177 H   0  0  0  0  0  0  0  0  0  0  0  0
    4.9280    1.5355    0.2733 H   0  0  0  0  0  0  0  0  0  0  0  0
    5.0673   -0.8455   -0.5846 H   0  0  0  0  0  0  0  0  0  0  0  0
    5.4978   -2.2348    0.5820 H   0  0  0  0  0  0  0  0  0  0  0  0
    7.1767   -3.9020    0.3638 H   0  0  0  0  0  0  0  0  0  0  0  0
    6.5718   -6.2995    0.1564 H   0  0  0  0  0  0  0  0  0  0  0  0
    4.1732   -6.9298    0.3113 H   0  0  0  0  0  0  0  0  0  0  0  0
    2.4681   -5.2411    0.5011 H   0  0  0  0  0  0  0  0  0  0  0  0
    1.4976   -4.8481   -1.2685 H   0  0  0  0  0  0  0  0  0  0  0  0
   -1.0479   -4.9171   -1.1670 H   0  0  0  0  0  0  0  0  0  0  0  0
    0.1957   -1.0797    0.0934 H   0  0  0  0  0  0  0  0  0  0  0  0
   -2.3791   -4.7002    1.5422 H   0  0  0  0  0  0  0  0  0  0  0  0
   -4.0312   -6.5337    1.5048 H   0  0  0  0  0  0  0  0  0  0  0  0
   -5.8716   -6.5250   -0.1581 H   0  0  0  0  0  0  0  0  0  0  0  0
   -6.0196   -4.7003   -1.8316 H   0  0  0  0  0  0  0  0  0  0  0  0
   -4.3221   -2.9096   -1.8765 H   0  0  0  0  0  0  0  0  0  0  0  0
    2.3690    4.7287    1.6876 H   0  0  0  0  0  0  0  0  0  0  0  0
    3.9631    6.6135    1.5666 H   0  0  0  0  0  0  0  0  0  0  0  0
    5.8096    6.5902   -0.0906 H   0  0  0  0  0  0  0  0  0  0  0  0
    6.0051    4.7071   -1.6940 H   0  0  0  0  0  0  0  0  0  0  0  0
    4.3557    2.8782   -1.6642 H   0  0  0  0  0  0  0  0  0  0  0  0
   -5.6074    2.3469    0.8491 H   0  0  0  0  0  0  0  0  0  0  0  0
   -7.2037    4.0710    0.5334 H   0  0  0  0  0  0  0  0  0  0  0  0
   -6.4871    6.4043    0.0926 H   0  0  0  0  0  0  0  0  0  0  0  0
   -4.0548    6.9154    0.0475 H   0  0  0  0  0  0  0  0  0  0  0  0
   -2.4143    5.1520    0.2515 H   0  0  0  0  0  0  0  0  0  0  0  0
  1  2  2  0  0  0  0
  1 29  1  0  0  0  0
  1 49  1  0  0  0  0
  2  3  1  0  0  0  0
  2 50  1  0  0  0  0
  3  4  2  0  0  0  0
  3 30  1  0  0  0  0
  4  5  1  0  0  0  0
  4 43  1  0  0  0  0
  5  6  2  0  0  0  0
  5  9  1  0  0  0  0
  6  7  1  0  0  0  0
  6 51  1  0  0  0  0
  7  8  2  0  0  0  0
  7 52  1  0  0  0  0
  8  9  1  0  0  0  0
  8 10  1  0  0  0  0
  9 53  1  0  0  0  0
 10 11  2  0  0  0  0
 10 37  1  0  0  0  0
 11 12  1  0  0  0  0
 11 15  1  0  0  0  0
 12 13  2  0  0  0  0
 12 54  1  0  0  0  0
 13 14  1  0  0  0  0
 13 55  1  0  0  0  0
 14 15  2  0  0  0  0
 14 16  1  0  0  0  0
 16 17  1  0  0  0  0
 16 23  2  0  0  0  0
 17 18  1  0  0  0  0
 17 22  2  0  0  0  0
 18 19  2  0  0  0  0
 18 56  1  0  0  0  0
 19 20  1  0  0  0  0
 19 57  1  0  0  0  0
 20 21  2  0  0  0  0
 20 58  1  0  0  0  0
 21 22  1  0  0  0  0
 21 59  1  0  0  0  0
 22 60  1  0  0  0  0
 23 24  1  0  0  0  0
 23 27  1  0  0  0  0
 24 25  2  0  0  0  0
 24 61  1  0  0  0  0
 25 26  1  0  0  0  0
 25 62  1  0  0  0  0
 26 27  1  0  0  0  0
 26 28  2  0  0  0  0
 27 63  1  0  0  0  0
 28 29  1  0  0  0  0
 28 31  1  0  0  0  0
 29 30  2  0  0  0  0
 31 32  1  0  0  0  0
 31 36  2  0  0  0  0
 32 33  2  0  0  0  0
 32 64  1  0  0  0  0
 33 34  1  0  0  0  0
 33 65  1  0  0  0  0
 34 35  2  0  0  0  0
 34 66  1  0  0  0  0
 35 36  1  0  0  0  0
 35 67  1  0  0  0  0
 36 68  1  0  0  0  0
 37 38  1  0  0  0  0
 37 42  2  0  0  0  0
 38 39  2  0  0  0  0
 38 69  1  0  0  0  0
 39 40  1  0  0  0  0
 39 70  1  0  0  0  0
 40 41  2  0  0  0  0
 40 71  1  0  0  0  0
 41 42  1  0  0  0  0
 41 72  1  0  0  0  0
 42 73  1  0  0  0  0
 43 44  1  0  0  0  0
 43 48  2  0  0  0  0
 44 45  2  0  0  0  0
 44 74  1  0  0  0  0
 45 46  1  0  0  0  0
 45 75  1  0  0  0  0
 46 47  2  0  0  0  0
 46 76  1  0  0  0  0
 47 48  1  0  0  0  0
 47 77  1  0  0  0  0
 48 78  1  0  0  0  0
M  END
